&share
 wrf_core                      = 'ARW',
 max_dom                       = 3,
 start_date                    = '${START_YEAR}-${START_MONTH}-${START_DAY}_${START_HOUR}:00:00','${START_YEAR}-${START_MONTH}-${START_DAY}_${START_HOUR}:00:00','${START_YEAR}-${START_MONTH}-${START_DAY}_${START_HOUR}:00:00',
 end_date                      = '${END_YEAR}-${END_MONTH}-${END_DAY}_${END_HOUR}:00:00','${END_YEAR}-${END_MONTH}-${END_DAY}_${END_HOUR}:00:00','${END_YEAR}-${END_MONTH}-${END_DAY}_${END_HOUR}:00:00',
 interval_seconds              = 3600,
 io_form_geogrid               = 2,
 opt_output_from_geogrid_path  = '.',
 debug_level = 0,
/

&geogrid
 parent_id                     =              1,             1,             2,
 parent_grid_ratio             =              1,             3,             3,
 i_parent_start                =              1,            77,            53,
 j_parent_start                =              1,            32,            53,
 e_we                          =            250,           451,           943,
 e_sn                          =            250,           400,           883,
 geog_data_res                 = 'modis_lakes+30s','modis_lakes+30s','modis_lakes+30s',
 dx                            = 13500,
 dy                            = 13500,
 map_proj                      = 'mercator',
 ref_lat                       = 45.5,
 ref_lon                       = 9,
 truelat1                      = 45.5,
 truelat2                      = 0,
 stand_lon                     = 9,
 geog_data_path                = '$GEOG_DATA',
 opt_geogrid_tbl_path          = '$WPS_DIR/geogrid',
 ref_x                         = 125,
 ref_y                         = 125,
/

&ungrib
 out_format = 'WPS',
 prefix = 'FILE',
/

&metgrid
 fg_name                       = 'FILE',
 io_form_metgrid               = 2,
 $METGRID_CONSTANTS
 opt_output_from_metgrid_path  = '.',
 opt_metgrid_tbl_path          = '$WPS_DIR/metgrid',
/

&mod_levs
 press_pa = 201300 , 200100 , 100000 ,
             95000 ,  90000 ,
             85000 ,  80000 ,
             75000 ,  70000 ,
             65000 ,  60000 ,
             55000 ,  50000 ,
             45000 ,  40000 ,
             35000 ,  30000 ,
             25000 ,  20000 ,
             15000 ,  10000 ,
              5000 ,   1000
 /
